*SPEF "ieee 1481-1999"
*DESIGN "cla"
*DATE "11:11:11 Fri 11 11, 1111"
*VENDOR "OpenRCX"
*PROGRAM "Parallel Extraction"
*VERSION "1.0"
*DESIGN_FLOW "NAME_SCOPE LOCAL" "PIN_CAP NONE"
*DIVIDER /
*DELIMITER :
*BUS_DELIMITER []
*T_UNIT 1 NS
*C_UNIT 1 PF
*R_UNIT 1 OHM
*L_UNIT 1 HENRY

*NAME_MAP
*1 A[0]
*2 A[1]
*3 A[2]
*4 A[3]
*5 B[0]
*6 B[1]
*7 B[2]
*8 B[3]
*9 S[0]
*10 S[1]
*11 S[2]
*12 S[3]
*13 cin
*14 cout
*17 _00_
*18 _01_
*19 _02_
*20 _03_
*21 _04_
*22 _05_
*23 _06_
*24 _07_
*25 _08_
*26 _09_
*27 _10_
*28 _11_
*29 _12_
*30 _13_
*31 _14_
*32 net1
*33 net10
*34 net11
*35 net12
*36 net13
*37 net14
*38 net2
*39 net3
*40 net4
*41 net5
*42 net6
*43 net7
*44 net8
*45 net9
*46 ANTENNA__15__A1
*47 ANTENNA__15__A2
*48 ANTENNA__16__A1
*49 ANTENNA__16__A2
*50 ANTENNA__17__A1
*51 ANTENNA__17__A2
*52 ANTENNA__18__A1
*53 ANTENNA__18__A2
*54 ANTENNA__19__A1
*55 ANTENNA__19__A2
*56 ANTENNA__19__B
*57 ANTENNA__21__A1
*58 ANTENNA__21__A2
*59 ANTENNA__23__A1
*60 ANTENNA__23__A2
*61 ANTENNA__25__A1
*62 ANTENNA__25__A2
*63 ANTENNA__26__A2
*64 ANTENNA__27__A1
*65 ANTENNA__27__A2
*66 ANTENNA__27__A3
*67 ANTENNA__29__A1
*68 ANTENNA__29__A2
*69 ANTENNA__31__A1
*70 ANTENNA__31__A2
*71 ANTENNA__33__A1
*72 ANTENNA__33__A2
*73 ANTENNA__33__A3
*74 ANTENNA_input1_I
*75 ANTENNA_input2_I
*76 ANTENNA_input3_I
*77 ANTENNA_input4_I
*78 ANTENNA_input5_I
*79 ANTENNA_input6_I
*80 ANTENNA_input7_I
*81 ANTENNA_input8_I
*82 ANTENNA_input9_I
*83 ANTENNA_output10_I
*84 ANTENNA_output11_I
*85 ANTENNA_output12_I
*86 ANTENNA_output13_I
*87 ANTENNA_output14_I
*88 FILLER_0_104
*89 FILLER_0_107
*90 FILLER_0_123
*91 FILLER_0_131
*92 FILLER_0_135
*93 FILLER_0_139
*94 FILLER_0_142
*95 FILLER_0_159
*96 FILLER_0_177
*97 FILLER_0_179
*98 FILLER_0_182
*99 FILLER_0_186
*100 FILLER_0_193
*101 FILLER_0_195
*102 FILLER_0_2
*103 FILLER_0_204
*104 FILLER_0_206
*105 FILLER_0_209
*106 FILLER_0_212
*107 FILLER_0_238
*108 FILLER_0_242
*109 FILLER_0_244
*110 FILLER_0_247
*111 FILLER_0_251
*112 FILLER_0_253
*113 FILLER_0_279
*114 FILLER_0_282
*115 FILLER_0_285
*116 FILLER_0_301
*117 FILLER_0_309
*118 FILLER_0_311
*119 FILLER_0_314
*120 FILLER_0_317
*121 FILLER_0_34
*122 FILLER_0_343
*123 FILLER_0_345
*124 FILLER_0_348
*125 FILLER_0_352
*126 FILLER_0_355
*127 FILLER_0_359
*128 FILLER_0_363
*129 FILLER_0_367
*130 FILLER_0_37
*131 FILLER_0_384
*132 FILLER_0_387
*133 FILLER_0_390
*134 FILLER_0_406
*135 FILLER_0_414
*136 FILLER_0_418
*137 FILLER_0_422
*138 FILLER_0_426
*139 FILLER_0_428
*140 FILLER_0_454
*141 FILLER_0_457
*142 FILLER_0_460
*143 FILLER_0_476
*144 FILLER_0_484
*145 FILLER_0_488
*146 FILLER_0_492
*147 FILLER_0_508
*148 FILLER_0_69
*149 FILLER_0_72
*150 FILLER_0_74
*151 FILLER_0_77
*152 FILLER_10_101
*153 FILLER_10_105
*154 FILLER_10_108
*155 FILLER_10_172
*156 FILLER_10_176
*157 FILLER_10_179
*158 FILLER_10_2
*159 FILLER_10_243
*160 FILLER_10_247
*161 FILLER_10_250
*162 FILLER_10_314
*163 FILLER_10_318
*164 FILLER_10_321
*165 FILLER_10_34
*166 FILLER_10_37
*167 FILLER_10_385
*168 FILLER_10_389
*169 FILLER_10_392
*170 FILLER_10_456
*171 FILLER_10_460
*172 FILLER_10_463
*173 FILLER_10_495
*174 FILLER_10_503
*175 FILLER_10_507
*176 FILLER_11_137
*177 FILLER_11_141
*178 FILLER_11_144
*179 FILLER_11_2
*180 FILLER_11_208
*181 FILLER_11_212
*182 FILLER_11_215
*183 FILLER_11_279
*184 FILLER_11_283
*185 FILLER_11_286
*186 FILLER_11_350
*187 FILLER_11_354
*188 FILLER_11_357
*189 FILLER_11_421
*190 FILLER_11_425
*191 FILLER_11_428
*192 FILLER_11_492
*193 FILLER_11_496
*194 FILLER_11_499
*195 FILLER_11_507
*196 FILLER_11_66
*197 FILLER_11_70
*198 FILLER_11_73
*199 FILLER_12_101
*200 FILLER_12_105
*201 FILLER_12_108
*202 FILLER_12_172
*203 FILLER_12_176
*204 FILLER_12_179
*205 FILLER_12_2
*206 FILLER_12_243
*207 FILLER_12_247
*208 FILLER_12_250
*209 FILLER_12_314
*210 FILLER_12_318
*211 FILLER_12_321
*212 FILLER_12_34
*213 FILLER_12_37
*214 FILLER_12_385
*215 FILLER_12_389
*216 FILLER_12_392
*217 FILLER_12_456
*218 FILLER_12_460
*219 FILLER_12_463
*220 FILLER_12_495
*221 FILLER_12_503
*222 FILLER_12_507
*223 FILLER_13_137
*224 FILLER_13_141
*225 FILLER_13_144
*226 FILLER_13_2
*227 FILLER_13_208
*228 FILLER_13_212
*229 FILLER_13_215
*230 FILLER_13_279
*231 FILLER_13_283
*232 FILLER_13_286
*233 FILLER_13_350
*234 FILLER_13_354
*235 FILLER_13_357
*236 FILLER_13_421
*237 FILLER_13_425
*238 FILLER_13_428
*239 FILLER_13_492
*240 FILLER_13_496
*241 FILLER_13_499
*242 FILLER_13_507
*243 FILLER_13_66
*244 FILLER_13_70
*245 FILLER_13_73
*246 FILLER_14_101
*247 FILLER_14_105
*248 FILLER_14_108
*249 FILLER_14_172
*250 FILLER_14_176
*251 FILLER_14_179
*252 FILLER_14_2
*253 FILLER_14_243
*254 FILLER_14_247
*255 FILLER_14_250
*256 FILLER_14_314
*257 FILLER_14_318
*258 FILLER_14_321
*259 FILLER_14_34
*260 FILLER_14_37
*261 FILLER_14_385
*262 FILLER_14_389
*263 FILLER_14_392
*264 FILLER_14_456
*265 FILLER_14_460
*266 FILLER_14_463
*267 FILLER_14_495
*268 FILLER_14_503
*269 FILLER_14_507
*270 FILLER_15_137
*271 FILLER_15_141
*272 FILLER_15_144
*273 FILLER_15_2
*274 FILLER_15_208
*275 FILLER_15_212
*276 FILLER_15_215
*277 FILLER_15_279
*278 FILLER_15_283
*279 FILLER_15_286
*280 FILLER_15_350
*281 FILLER_15_354
*282 FILLER_15_357
*283 FILLER_15_421
*284 FILLER_15_425
*285 FILLER_15_428
*286 FILLER_15_492
*287 FILLER_15_496
*288 FILLER_15_499
*289 FILLER_15_507
*290 FILLER_15_66
*291 FILLER_15_70
*292 FILLER_15_73
*293 FILLER_16_101
*294 FILLER_16_105
*295 FILLER_16_108
*296 FILLER_16_172
*297 FILLER_16_176
*298 FILLER_16_179
*299 FILLER_16_2
*300 FILLER_16_243
*301 FILLER_16_247
*302 FILLER_16_250
*303 FILLER_16_314
*304 FILLER_16_318
*305 FILLER_16_321
*306 FILLER_16_34
*307 FILLER_16_37
*308 FILLER_16_385
*309 FILLER_16_389
*310 FILLER_16_392
*311 FILLER_16_456
*312 FILLER_16_460
*313 FILLER_16_463
*314 FILLER_16_495
*315 FILLER_16_503
*316 FILLER_16_507
*317 FILLER_17_137
*318 FILLER_17_141
*319 FILLER_17_144
*320 FILLER_17_2
*321 FILLER_17_208
*322 FILLER_17_212
*323 FILLER_17_215
*324 FILLER_17_279
*325 FILLER_17_283
*326 FILLER_17_286
*327 FILLER_17_350
*328 FILLER_17_354
*329 FILLER_17_357
*330 FILLER_17_421
*331 FILLER_17_425
*332 FILLER_17_428
*333 FILLER_17_492
*334 FILLER_17_496
*335 FILLER_17_499
*336 FILLER_17_507
*337 FILLER_17_66
*338 FILLER_17_70
*339 FILLER_17_73
*340 FILLER_18_101
*341 FILLER_18_105
*342 FILLER_18_108
*343 FILLER_18_172
*344 FILLER_18_176
*345 FILLER_18_179
*346 FILLER_18_2
*347 FILLER_18_243
*348 FILLER_18_247
*349 FILLER_18_250
*350 FILLER_18_314
*351 FILLER_18_318
*352 FILLER_18_321
*353 FILLER_18_34
*354 FILLER_18_37
*355 FILLER_18_385
*356 FILLER_18_389
*357 FILLER_18_392
*358 FILLER_18_456
*359 FILLER_18_460
*360 FILLER_18_463
*361 FILLER_18_495
*362 FILLER_18_503
*363 FILLER_18_507
*364 FILLER_19_137
*365 FILLER_19_141
*366 FILLER_19_144
*367 FILLER_19_2
*368 FILLER_19_208
*369 FILLER_19_212
*370 FILLER_19_215
*371 FILLER_19_279
*372 FILLER_19_283
*373 FILLER_19_286
*374 FILLER_19_350
*375 FILLER_19_354
*376 FILLER_19_357
*377 FILLER_19_421
*378 FILLER_19_425
*379 FILLER_19_428
*380 FILLER_19_492
*381 FILLER_19_496
*382 FILLER_19_499
*383 FILLER_19_507
*384 FILLER_19_66
*385 FILLER_19_70
*386 FILLER_19_73
*387 FILLER_1_10
*388 FILLER_1_137
*389 FILLER_1_14
*390 FILLER_1_141
*391 FILLER_1_144
*392 FILLER_1_176
*393 FILLER_1_179
*394 FILLER_1_18
*395 FILLER_1_2
*396 FILLER_1_204
*397 FILLER_1_212
*398 FILLER_1_215
*399 FILLER_1_224
*400 FILLER_1_226
*401 FILLER_1_229
*402 FILLER_1_231
*403 FILLER_1_255
*404 FILLER_1_265
*405 FILLER_1_269
*406 FILLER_1_273
*407 FILLER_1_281
*408 FILLER_1_283
*409 FILLER_1_286
*410 FILLER_1_318
*411 FILLER_1_334
*412 FILLER_1_336
*413 FILLER_1_339
*414 FILLER_1_346
*415 FILLER_1_354
*416 FILLER_1_357
*417 FILLER_1_366
*418 FILLER_1_398
*419 FILLER_1_414
*420 FILLER_1_422
*421 FILLER_1_428
*422 FILLER_1_45
*423 FILLER_1_460
*424 FILLER_1_468
*425 FILLER_1_470
*426 FILLER_1_496
*427 FILLER_1_499
*428 FILLER_1_502
*429 FILLER_1_506
*430 FILLER_1_508
*431 FILLER_1_61
*432 FILLER_1_69
*433 FILLER_1_73
*434 FILLER_20_101
*435 FILLER_20_105
*436 FILLER_20_108
*437 FILLER_20_172
*438 FILLER_20_176
*439 FILLER_20_179
*440 FILLER_20_2
*441 FILLER_20_243
*442 FILLER_20_247
*443 FILLER_20_250
*444 FILLER_20_314
*445 FILLER_20_318
*446 FILLER_20_321
*447 FILLER_20_34
*448 FILLER_20_37
*449 FILLER_20_385
*450 FILLER_20_389
*451 FILLER_20_392
*452 FILLER_20_456
*453 FILLER_20_460
*454 FILLER_20_463
*455 FILLER_20_495
*456 FILLER_20_503
*457 FILLER_20_507
*458 FILLER_21_137
*459 FILLER_21_141
*460 FILLER_21_144
*461 FILLER_21_2
*462 FILLER_21_208
*463 FILLER_21_212
*464 FILLER_21_215
*465 FILLER_21_279
*466 FILLER_21_283
*467 FILLER_21_286
*468 FILLER_21_350
*469 FILLER_21_354
*470 FILLER_21_357
*471 FILLER_21_421
*472 FILLER_21_425
*473 FILLER_21_428
*474 FILLER_21_492
*475 FILLER_21_496
*476 FILLER_21_499
*477 FILLER_21_507
*478 FILLER_21_66
*479 FILLER_21_70
*480 FILLER_21_73
*481 FILLER_22_101
*482 FILLER_22_105
*483 FILLER_22_108
*484 FILLER_22_172
*485 FILLER_22_176
*486 FILLER_22_179
*487 FILLER_22_2
*488 FILLER_22_243
*489 FILLER_22_247
*490 FILLER_22_250
*491 FILLER_22_314
*492 FILLER_22_318
*493 FILLER_22_321
*494 FILLER_22_34
*495 FILLER_22_37
*496 FILLER_22_385
*497 FILLER_22_389
*498 FILLER_22_392
*499 FILLER_22_456
*500 FILLER_22_460
*501 FILLER_22_463
*502 FILLER_22_495
*503 FILLER_22_503
*504 FILLER_22_507
*505 FILLER_23_137
*506 FILLER_23_141
*507 FILLER_23_144
*508 FILLER_23_2
*509 FILLER_23_208
*510 FILLER_23_212
*511 FILLER_23_215
*512 FILLER_23_279
*513 FILLER_23_283
*514 FILLER_23_286
*515 FILLER_23_350
*516 FILLER_23_354
*517 FILLER_23_357
*518 FILLER_23_421
*519 FILLER_23_425
*520 FILLER_23_428
*521 FILLER_23_492
*522 FILLER_23_496
*523 FILLER_23_499
*524 FILLER_23_507
*525 FILLER_23_66
*526 FILLER_23_70
*527 FILLER_23_73
*528 FILLER_24_101
*529 FILLER_24_105
*530 FILLER_24_108
*531 FILLER_24_172
*532 FILLER_24_176
*533 FILLER_24_179
*534 FILLER_24_2
*535 FILLER_24_243
*536 FILLER_24_247
*537 FILLER_24_250
*538 FILLER_24_314
*539 FILLER_24_318
*540 FILLER_24_321
*541 FILLER_24_34
*542 FILLER_24_37
*543 FILLER_24_385
*544 FILLER_24_389
*545 FILLER_24_392
*546 FILLER_24_456
*547 FILLER_24_460
*548 FILLER_24_463
*549 FILLER_24_495
*550 FILLER_24_503
*551 FILLER_24_507
*552 FILLER_25_137
*553 FILLER_25_141
*554 FILLER_25_144
*555 FILLER_25_2
*556 FILLER_25_208
*557 FILLER_25_212
*558 FILLER_25_215
*559 FILLER_25_279
*560 FILLER_25_283
*561 FILLER_25_286
*562 FILLER_25_350
*563 FILLER_25_354
*564 FILLER_25_357
*565 FILLER_25_421
*566 FILLER_25_425
*567 FILLER_25_428
*568 FILLER_25_492
*569 FILLER_25_496
*570 FILLER_25_499
*571 FILLER_25_507
*572 FILLER_25_66
*573 FILLER_25_70
*574 FILLER_25_73
*575 FILLER_26_101
*576 FILLER_26_105
*577 FILLER_26_108
*578 FILLER_26_172
*579 FILLER_26_176
*580 FILLER_26_179
*581 FILLER_26_2
*582 FILLER_26_243
*583 FILLER_26_247
*584 FILLER_26_250
*585 FILLER_26_314
*586 FILLER_26_318
*587 FILLER_26_321
*588 FILLER_26_34
*589 FILLER_26_37
*590 FILLER_26_385
*591 FILLER_26_389
*592 FILLER_26_392
*593 FILLER_26_456
*594 FILLER_26_460
*595 FILLER_26_463
*596 FILLER_26_495
*597 FILLER_26_503
*598 FILLER_26_507
*599 FILLER_27_137
*600 FILLER_27_141
*601 FILLER_27_144
*602 FILLER_27_2
*603 FILLER_27_208
*604 FILLER_27_212
*605 FILLER_27_215
*606 FILLER_27_279
*607 FILLER_27_283
*608 FILLER_27_286
*609 FILLER_27_350
*610 FILLER_27_354
*611 FILLER_27_357
*612 FILLER_27_421
*613 FILLER_27_425
*614 FILLER_27_428
*615 FILLER_27_492
*616 FILLER_27_496
*617 FILLER_27_499
*618 FILLER_27_507
*619 FILLER_27_66
*620 FILLER_27_70
*621 FILLER_27_73
*622 FILLER_28_101
*623 FILLER_28_105
*624 FILLER_28_108
*625 FILLER_28_172
*626 FILLER_28_176
*627 FILLER_28_179
*628 FILLER_28_2
*629 FILLER_28_243
*630 FILLER_28_247
*631 FILLER_28_250
*632 FILLER_28_314
*633 FILLER_28_318
*634 FILLER_28_321
*635 FILLER_28_34
*636 FILLER_28_37
*637 FILLER_28_385
*638 FILLER_28_389
*639 FILLER_28_392
*640 FILLER_28_456
*641 FILLER_28_460
*642 FILLER_28_463
*643 FILLER_28_495
*644 FILLER_28_503
*645 FILLER_28_507
*646 FILLER_29_137
*647 FILLER_29_141
*648 FILLER_29_144
*649 FILLER_29_2
*650 FILLER_29_208
*651 FILLER_29_212
*652 FILLER_29_215
*653 FILLER_29_279
*654 FILLER_29_283
*655 FILLER_29_286
*656 FILLER_29_350
*657 FILLER_29_354
*658 FILLER_29_357
*659 FILLER_29_421
*660 FILLER_29_425
*661 FILLER_29_428
*662 FILLER_29_492
*663 FILLER_29_496
*664 FILLER_29_499
*665 FILLER_29_507
*666 FILLER_29_66
*667 FILLER_29_70
*668 FILLER_29_73
*669 FILLER_2_101
*670 FILLER_2_105
*671 FILLER_2_108
*672 FILLER_2_172
*673 FILLER_2_176
*674 FILLER_2_179
*675 FILLER_2_185
*676 FILLER_2_189
*677 FILLER_2_199
*678 FILLER_2_2
*679 FILLER_2_227
*680 FILLER_2_234
*681 FILLER_2_238
*682 FILLER_2_247
*683 FILLER_2_250
*684 FILLER_2_259
*685 FILLER_2_263
*686 FILLER_2_295
*687 FILLER_2_311
*688 FILLER_2_321
*689 FILLER_2_329
*690 FILLER_2_331
*691 FILLER_2_334
*692 FILLER_2_338
*693 FILLER_2_34
*694 FILLER_2_364
*695 FILLER_2_368
*696 FILLER_2_37
*697 FILLER_2_384
*698 FILLER_2_388
*699 FILLER_2_392
*700 FILLER_2_456
*701 FILLER_2_460
*702 FILLER_2_463
*703 FILLER_2_495
*704 FILLER_2_503
*705 FILLER_2_507
*706 FILLER_30_101
*707 FILLER_30_105
*708 FILLER_30_108
*709 FILLER_30_172
*710 FILLER_30_176
*711 FILLER_30_179
*712 FILLER_30_2
*713 FILLER_30_243
*714 FILLER_30_247
*715 FILLER_30_250
*716 FILLER_30_314
*717 FILLER_30_318
*718 FILLER_30_321
*719 FILLER_30_34
*720 FILLER_30_37
*721 FILLER_30_385
*722 FILLER_30_389
*723 FILLER_30_392
*724 FILLER_30_456
*725 FILLER_30_460
*726 FILLER_30_463
*727 FILLER_30_495
*728 FILLER_30_503
*729 FILLER_30_507
*730 FILLER_31_137
*731 FILLER_31_141
*732 FILLER_31_144
*733 FILLER_31_2
*734 FILLER_31_208
*735 FILLER_31_212
*736 FILLER_31_215
*737 FILLER_31_279
*738 FILLER_31_283
*739 FILLER_31_286
*740 FILLER_31_350
*741 FILLER_31_354
*742 FILLER_31_357
*743 FILLER_31_421
*744 FILLER_31_425
*745 FILLER_31_428
*746 FILLER_31_492
*747 FILLER_31_496
*748 FILLER_31_499
*749 FILLER_31_507
*750 FILLER_31_66
*751 FILLER_31_70
*752 FILLER_31_73
*753 FILLER_32_101
*754 FILLER_32_105
*755 FILLER_32_108
*756 FILLER_32_172
*757 FILLER_32_176
*758 FILLER_32_179
*759 FILLER_32_2
*760 FILLER_32_243
*761 FILLER_32_247
*762 FILLER_32_250
*763 FILLER_32_314
*764 FILLER_32_318
*765 FILLER_32_321
*766 FILLER_32_34
*767 FILLER_32_37
*768 FILLER_32_385
*769 FILLER_32_389
*770 FILLER_32_392
*771 FILLER_32_456
*772 FILLER_32_460
*773 FILLER_32_463
*774 FILLER_32_495
*775 FILLER_32_503
*776 FILLER_32_507
*777 FILLER_33_137
*778 FILLER_33_141
*779 FILLER_33_144
*780 FILLER_33_2
*781 FILLER_33_208
*782 FILLER_33_212
*783 FILLER_33_215
*784 FILLER_33_279
*785 FILLER_33_283
*786 FILLER_33_286
*787 FILLER_33_350
*788 FILLER_33_354
*789 FILLER_33_357
*790 FILLER_33_421
*791 FILLER_33_425
*792 FILLER_33_428
*793 FILLER_33_492
*794 FILLER_33_496
*795 FILLER_33_499
*796 FILLER_33_507
*797 FILLER_33_66
*798 FILLER_33_70
*799 FILLER_33_73
*800 FILLER_34_101
*801 FILLER_34_105
*802 FILLER_34_108
*803 FILLER_34_172
*804 FILLER_34_176
*805 FILLER_34_179
*806 FILLER_34_2
*807 FILLER_34_243
*808 FILLER_34_247
*809 FILLER_34_250
*810 FILLER_34_314
*811 FILLER_34_318
*812 FILLER_34_321
*813 FILLER_34_34
*814 FILLER_34_37
*815 FILLER_34_385
*816 FILLER_34_389
*817 FILLER_34_392
*818 FILLER_34_456
*819 FILLER_34_460
*820 FILLER_34_463
*821 FILLER_34_495
*822 FILLER_34_503
*823 FILLER_34_507
*824 FILLER_35_137
*825 FILLER_35_141
*826 FILLER_35_144
*827 FILLER_35_2
*828 FILLER_35_208
*829 FILLER_35_212
*830 FILLER_35_215
*831 FILLER_35_279
*832 FILLER_35_283
*833 FILLER_35_286
*834 FILLER_35_350
*835 FILLER_35_354
*836 FILLER_35_357
*837 FILLER_35_421
*838 FILLER_35_425
*839 FILLER_35_428
*840 FILLER_35_492
*841 FILLER_35_496
*842 FILLER_35_499
*843 FILLER_35_507
*844 FILLER_35_66
*845 FILLER_35_70
*846 FILLER_35_73
*847 FILLER_36_101
*848 FILLER_36_105
*849 FILLER_36_108
*850 FILLER_36_172
*851 FILLER_36_176
*852 FILLER_36_179
*853 FILLER_36_2
*854 FILLER_36_243
*855 FILLER_36_247
*856 FILLER_36_250
*857 FILLER_36_314
*858 FILLER_36_318
*859 FILLER_36_321
*860 FILLER_36_34
*861 FILLER_36_37
*862 FILLER_36_385
*863 FILLER_36_389
*864 FILLER_36_392
*865 FILLER_36_456
*866 FILLER_36_460
*867 FILLER_36_463
*868 FILLER_36_495
*869 FILLER_36_503
*870 FILLER_36_507
*871 FILLER_37_137
*872 FILLER_37_141
*873 FILLER_37_144
*874 FILLER_37_2
*875 FILLER_37_208
*876 FILLER_37_212
*877 FILLER_37_215
*878 FILLER_37_279
*879 FILLER_37_283
*880 FILLER_37_286
*881 FILLER_37_350
*882 FILLER_37_354
*883 FILLER_37_357
*884 FILLER_37_421
*885 FILLER_37_425
*886 FILLER_37_428
*887 FILLER_37_492
*888 FILLER_37_496
*889 FILLER_37_499
*890 FILLER_37_507
*891 FILLER_37_66
*892 FILLER_37_70
*893 FILLER_37_73
*894 FILLER_38_101
*895 FILLER_38_105
*896 FILLER_38_108
*897 FILLER_38_172
*898 FILLER_38_176
*899 FILLER_38_179
*900 FILLER_38_2
*901 FILLER_38_243
*902 FILLER_38_247
*903 FILLER_38_250
*904 FILLER_38_314
*905 FILLER_38_318
*906 FILLER_38_321
*907 FILLER_38_34
*908 FILLER_38_37
*909 FILLER_38_385
*910 FILLER_38_389
*911 FILLER_38_392
*912 FILLER_38_456
*913 FILLER_38_460
*914 FILLER_38_463
*915 FILLER_38_495
*916 FILLER_38_503
*917 FILLER_38_507
*918 FILLER_39_137
*919 FILLER_39_141
*920 FILLER_39_144
*921 FILLER_39_2
*922 FILLER_39_208
*923 FILLER_39_212
*924 FILLER_39_215
*925 FILLER_39_279
*926 FILLER_39_283
*927 FILLER_39_286
*928 FILLER_39_350
*929 FILLER_39_354
*930 FILLER_39_357
*931 FILLER_39_421
*932 FILLER_39_425
*933 FILLER_39_428
*934 FILLER_39_492
*935 FILLER_39_496
*936 FILLER_39_499
*937 FILLER_39_507
*938 FILLER_39_66
*939 FILLER_39_70
*940 FILLER_39_73
*941 FILLER_3_137
*942 FILLER_3_141
*943 FILLER_3_144
*944 FILLER_3_176
*945 FILLER_3_184
*946 FILLER_3_188
*947 FILLER_3_196
*948 FILLER_3_2
*949 FILLER_3_200
*950 FILLER_3_203
*951 FILLER_3_207
*952 FILLER_3_211
*953 FILLER_3_215
*954 FILLER_3_222
*955 FILLER_3_226
*956 FILLER_3_229
*957 FILLER_3_233
*958 FILLER_3_239
*959 FILLER_3_243
*960 FILLER_3_249
*961 FILLER_3_253
*962 FILLER_3_255
*963 FILLER_3_262
*964 FILLER_3_278
*965 FILLER_3_282
*966 FILLER_3_286
*967 FILLER_3_350
*968 FILLER_3_354
*969 FILLER_3_357
*970 FILLER_3_367
*971 FILLER_3_399
*972 FILLER_3_415
*973 FILLER_3_423
*974 FILLER_3_425
*975 FILLER_3_428
*976 FILLER_3_492
*977 FILLER_3_496
*978 FILLER_3_499
*979 FILLER_3_507
*980 FILLER_3_66
*981 FILLER_3_70
*982 FILLER_3_73
*983 FILLER_40_101
*984 FILLER_40_105
*985 FILLER_40_108
*986 FILLER_40_172
*987 FILLER_40_176
*988 FILLER_40_179
*989 FILLER_40_2
*990 FILLER_40_243
*991 FILLER_40_247
*992 FILLER_40_250
*993 FILLER_40_314
*994 FILLER_40_318
*995 FILLER_40_321
*996 FILLER_40_34
*997 FILLER_40_37
*998 FILLER_40_385
*999 FILLER_40_389
*1000 FILLER_40_392
*1001 FILLER_40_456
*1002 FILLER_40_460
*1003 FILLER_40_463
*1004 FILLER_40_495
*1005 FILLER_40_503
*1006 FILLER_40_507
*1007 FILLER_41_137
*1008 FILLER_41_141
*1009 FILLER_41_144
*1010 FILLER_41_2
*1011 FILLER_41_208
*1012 FILLER_41_212
*1013 FILLER_41_215
*1014 FILLER_41_279
*1015 FILLER_41_283
*1016 FILLER_41_286
*1017 FILLER_41_350
*1018 FILLER_41_354
*1019 FILLER_41_357
*1020 FILLER_41_421
*1021 FILLER_41_425
*1022 FILLER_41_428
*1023 FILLER_41_492
*1024 FILLER_41_496
*1025 FILLER_41_499
*1026 FILLER_41_507
*1027 FILLER_41_66
*1028 FILLER_41_70
*1029 FILLER_41_73
*1030 FILLER_42_101
*1031 FILLER_42_105
*1032 FILLER_42_108
*1033 FILLER_42_172
*1034 FILLER_42_176
*1035 FILLER_42_179
*1036 FILLER_42_2
*1037 FILLER_42_243
*1038 FILLER_42_247
*1039 FILLER_42_250
*1040 FILLER_42_314
*1041 FILLER_42_318
*1042 FILLER_42_321
*1043 FILLER_42_34
*1044 FILLER_42_37
*1045 FILLER_42_385
*1046 FILLER_42_389
*1047 FILLER_42_392
*1048 FILLER_42_456
*1049 FILLER_42_460
*1050 FILLER_42_463
*1051 FILLER_42_495
*1052 FILLER_42_503
*1053 FILLER_42_507
*1054 FILLER_43_137
*1055 FILLER_43_141
*1056 FILLER_43_144
*1057 FILLER_43_2
*1058 FILLER_43_208
*1059 FILLER_43_212
*1060 FILLER_43_215
*1061 FILLER_43_279
*1062 FILLER_43_283
*1063 FILLER_43_286
*1064 FILLER_43_350
*1065 FILLER_43_354
*1066 FILLER_43_357
*1067 FILLER_43_421
*1068 FILLER_43_425
*1069 FILLER_43_428
*1070 FILLER_43_492
*1071 FILLER_43_496
*1072 FILLER_43_499
*1073 FILLER_43_507
*1074 FILLER_43_66
*1075 FILLER_43_70
*1076 FILLER_43_73
*1077 FILLER_44_101
*1078 FILLER_44_105
*1079 FILLER_44_108
*1080 FILLER_44_172
*1081 FILLER_44_176
*1082 FILLER_44_179
*1083 FILLER_44_2
*1084 FILLER_44_243
*1085 FILLER_44_247
*1086 FILLER_44_250
*1087 FILLER_44_314
*1088 FILLER_44_318
*1089 FILLER_44_321
*1090 FILLER_44_34
*1091 FILLER_44_37
*1092 FILLER_44_385
*1093 FILLER_44_389
*1094 FILLER_44_392
*1095 FILLER_44_456
*1096 FILLER_44_460
*1097 FILLER_44_463
*1098 FILLER_44_495
*1099 FILLER_44_503
*1100 FILLER_44_507
*1101 FILLER_45_137
*1102 FILLER_45_141
*1103 FILLER_45_144
*1104 FILLER_45_2
*1105 FILLER_45_208
*1106 FILLER_45_212
*1107 FILLER_45_215
*1108 FILLER_45_279
*1109 FILLER_45_283
*1110 FILLER_45_286
*1111 FILLER_45_350
*1112 FILLER_45_354
*1113 FILLER_45_357
*1114 FILLER_45_421
*1115 FILLER_45_425
*1116 FILLER_45_428
*1117 FILLER_45_492
*1118 FILLER_45_496
*1119 FILLER_45_499
*1120 FILLER_45_507
*1121 FILLER_45_66
*1122 FILLER_45_70
*1123 FILLER_45_73
*1124 FILLER_46_101
*1125 FILLER_46_105
*1126 FILLER_46_108
*1127 FILLER_46_172
*1128 FILLER_46_176
*1129 FILLER_46_179
*1130 FILLER_46_2
*1131 FILLER_46_243
*1132 FILLER_46_247
*1133 FILLER_46_250
*1134 FILLER_46_314
*1135 FILLER_46_318
*1136 FILLER_46_321
*1137 FILLER_46_34
*1138 FILLER_46_37
*1139 FILLER_46_385
*1140 FILLER_46_389
*1141 FILLER_46_392
*1142 FILLER_46_456
*1143 FILLER_46_460
*1144 FILLER_46_463
*1145 FILLER_46_495
*1146 FILLER_46_503
*1147 FILLER_46_507
*1148 FILLER_47_137
*1149 FILLER_47_141
*1150 FILLER_47_144
*1151 FILLER_47_2
*1152 FILLER_47_208
*1153 FILLER_47_212
*1154 FILLER_47_215
*1155 FILLER_47_279
*1156 FILLER_47_283
*1157 FILLER_47_286
*1158 FILLER_47_350
*1159 FILLER_47_354
*1160 FILLER_47_357
*1161 FILLER_47_421
*1162 FILLER_47_425
*1163 FILLER_47_428
*1164 FILLER_47_492
*1165 FILLER_47_496
*1166 FILLER_47_499
*1167 FILLER_47_507
*1168 FILLER_47_66
*1169 FILLER_47_70
*1170 FILLER_47_73
*1171 FILLER_48_101
*1172 FILLER_48_105
*1173 FILLER_48_108
*1174 FILLER_48_172
*1175 FILLER_48_176
*1176 FILLER_48_179
*1177 FILLER_48_2
*1178 FILLER_48_243
*1179 FILLER_48_247
*1180 FILLER_48_250
*1181 FILLER_48_314
*1182 FILLER_48_318
*1183 FILLER_48_321
*1184 FILLER_48_34
*1185 FILLER_48_37
*1186 FILLER_48_385
*1187 FILLER_48_389
*1188 FILLER_48_392
*1189 FILLER_48_456
*1190 FILLER_48_460
*1191 FILLER_48_463
*1192 FILLER_48_495
*1193 FILLER_48_503
*1194 FILLER_48_507
*1195 FILLER_49_137
*1196 FILLER_49_141
*1197 FILLER_49_144
*1198 FILLER_49_2
*1199 FILLER_49_208
*1200 FILLER_49_212
*1201 FILLER_49_215
*1202 FILLER_49_279
*1203 FILLER_49_283
*1204 FILLER_49_286
*1205 FILLER_49_350
*1206 FILLER_49_354
*1207 FILLER_49_357
*1208 FILLER_49_421
*1209 FILLER_49_425
*1210 FILLER_49_428
*1211 FILLER_49_492
*1212 FILLER_49_496
*1213 FILLER_49_499
*1214 FILLER_49_507
*1215 FILLER_49_66
*1216 FILLER_49_70
*1217 FILLER_49_73
*1218 FILLER_4_101
*1219 FILLER_4_105
*1220 FILLER_4_108
*1221 FILLER_4_172
*1222 FILLER_4_176
*1223 FILLER_4_179
*1224 FILLER_4_195
*1225 FILLER_4_2
*1226 FILLER_4_203
*1227 FILLER_4_206
*1228 FILLER_4_210
*1229 FILLER_4_242
*1230 FILLER_4_246
*1231 FILLER_4_250
*1232 FILLER_4_314
*1233 FILLER_4_318
*1234 FILLER_4_321
*1235 FILLER_4_34
*1236 FILLER_4_37
*1237 FILLER_4_385
*1238 FILLER_4_389
*1239 FILLER_4_392
*1240 FILLER_4_456
*1241 FILLER_4_460
*1242 FILLER_4_463
*1243 FILLER_4_495
*1244 FILLER_4_503
*1245 FILLER_4_507
*1246 FILLER_50_101
*1247 FILLER_50_105
*1248 FILLER_50_108
*1249 FILLER_50_172
*1250 FILLER_50_176
*1251 FILLER_50_179
*1252 FILLER_50_2
*1253 FILLER_50_243
*1254 FILLER_50_247
*1255 FILLER_50_250
*1256 FILLER_50_314
*1257 FILLER_50_318
*1258 FILLER_50_321
*1259 FILLER_50_34
*1260 FILLER_50_37
*1261 FILLER_50_385
*1262 FILLER_50_389
*1263 FILLER_50_392
*1264 FILLER_50_456
*1265 FILLER_50_460
*1266 FILLER_50_463
*1267 FILLER_50_495
*1268 FILLER_50_503
*1269 FILLER_50_507
*1270 FILLER_51_137
*1271 FILLER_51_141
*1272 FILLER_51_144
*1273 FILLER_51_2
*1274 FILLER_51_208
*1275 FILLER_51_212
*1276 FILLER_51_215
*1277 FILLER_51_279
*1278 FILLER_51_283
*1279 FILLER_51_286
*1280 FILLER_51_350
*1281 FILLER_51_354
*1282 FILLER_51_357
*1283 FILLER_51_421
*1284 FILLER_51_425
*1285 FILLER_51_428
*1286 FILLER_51_492
*1287 FILLER_51_496
*1288 FILLER_51_499
*1289 FILLER_51_507
*1290 FILLER_51_66
*1291 FILLER_51_70
*1292 FILLER_51_73
*1293 FILLER_52_101
*1294 FILLER_52_105
*1295 FILLER_52_108
*1296 FILLER_52_172
*1297 FILLER_52_176
*1298 FILLER_52_179
*1299 FILLER_52_2
*1300 FILLER_52_243
*1301 FILLER_52_247
*1302 FILLER_52_250
*1303 FILLER_52_314
*1304 FILLER_52_318
*1305 FILLER_52_321
*1306 FILLER_52_34
*1307 FILLER_52_37
*1308 FILLER_52_385
*1309 FILLER_52_389
*1310 FILLER_52_392
*1311 FILLER_52_456
*1312 FILLER_52_460
*1313 FILLER_52_463
*1314 FILLER_52_495
*1315 FILLER_52_503
*1316 FILLER_52_507
*1317 FILLER_53_137
*1318 FILLER_53_141
*1319 FILLER_53_144
*1320 FILLER_53_2
*1321 FILLER_53_208
*1322 FILLER_53_212
*1323 FILLER_53_215
*1324 FILLER_53_279
*1325 FILLER_53_283
*1326 FILLER_53_286
*1327 FILLER_53_350
*1328 FILLER_53_354
*1329 FILLER_53_357
*1330 FILLER_53_421
*1331 FILLER_53_425
*1332 FILLER_53_428
*1333 FILLER_53_492
*1334 FILLER_53_496
*1335 FILLER_53_499
*1336 FILLER_53_507
*1337 FILLER_53_66
*1338 FILLER_53_70
*1339 FILLER_53_73
*1340 FILLER_54_101
*1341 FILLER_54_105
*1342 FILLER_54_108
*1343 FILLER_54_172
*1344 FILLER_54_176
*1345 FILLER_54_179
*1346 FILLER_54_2
*1347 FILLER_54_243
*1348 FILLER_54_247
*1349 FILLER_54_250
*1350 FILLER_54_314
*1351 FILLER_54_318
*1352 FILLER_54_321
*1353 FILLER_54_34
*1354 FILLER_54_37
*1355 FILLER_54_385
*1356 FILLER_54_389
*1357 FILLER_54_392
*1358 FILLER_54_456
*1359 FILLER_54_460
*1360 FILLER_54_463
*1361 FILLER_54_495
*1362 FILLER_54_503
*1363 FILLER_54_507
*1364 FILLER_55_137
*1365 FILLER_55_141
*1366 FILLER_55_144
*1367 FILLER_55_2
*1368 FILLER_55_208
*1369 FILLER_55_212
*1370 FILLER_55_215
*1371 FILLER_55_279
*1372 FILLER_55_283
*1373 FILLER_55_286
*1374 FILLER_55_350
*1375 FILLER_55_354
*1376 FILLER_55_357
*1377 FILLER_55_421
*1378 FILLER_55_425
*1379 FILLER_55_428
*1380 FILLER_55_492
*1381 FILLER_55_496
*1382 FILLER_55_499
*1383 FILLER_55_507
*1384 FILLER_55_66
*1385 FILLER_55_70
*1386 FILLER_55_73
*1387 FILLER_56_101
*1388 FILLER_56_105
*1389 FILLER_56_108
*1390 FILLER_56_172
*1391 FILLER_56_176
*1392 FILLER_56_179
*1393 FILLER_56_2
*1394 FILLER_56_243
*1395 FILLER_56_247
*1396 FILLER_56_250
*1397 FILLER_56_314
*1398 FILLER_56_318
*1399 FILLER_56_321
*1400 FILLER_56_34
*1401 FILLER_56_37
*1402 FILLER_56_385
*1403 FILLER_56_389
*1404 FILLER_56_392
*1405 FILLER_56_456
*1406 FILLER_56_460
*1407 FILLER_56_463
*1408 FILLER_56_495
*1409 FILLER_56_503
*1410 FILLER_56_507
*1411 FILLER_57_137
*1412 FILLER_57_141
*1413 FILLER_57_144
*1414 FILLER_57_2
*1415 FILLER_57_208
*1416 FILLER_57_212
*1417 FILLER_57_215
*1418 FILLER_57_279
*1419 FILLER_57_283
*1420 FILLER_57_286
*1421 FILLER_57_350
*1422 FILLER_57_354
*1423 FILLER_57_357
*1424 FILLER_57_421
*1425 FILLER_57_425
*1426 FILLER_57_428
*1427 FILLER_57_492
*1428 FILLER_57_496
*1429 FILLER_57_499
*1430 FILLER_57_507
*1431 FILLER_57_66
*1432 FILLER_57_70
*1433 FILLER_57_73
*1434 FILLER_58_101
*1435 FILLER_58_105
*1436 FILLER_58_108
*1437 FILLER_58_172
*1438 FILLER_58_176
*1439 FILLER_58_179
*1440 FILLER_58_2
*1441 FILLER_58_243
*1442 FILLER_58_247
*1443 FILLER_58_250
*1444 FILLER_58_314
*1445 FILLER_58_318
*1446 FILLER_58_321
*1447 FILLER_58_34
*1448 FILLER_58_37
*1449 FILLER_58_385
*1450 FILLER_58_389
*1451 FILLER_58_392
*1452 FILLER_58_456
*1453 FILLER_58_460
*1454 FILLER_58_463
*1455 FILLER_58_495
*1456 FILLER_58_503
*1457 FILLER_58_507
*1458 FILLER_59_137
*1459 FILLER_59_141
*1460 FILLER_59_144
*1461 FILLER_59_2
*1462 FILLER_59_208
*1463 FILLER_59_212
*1464 FILLER_59_215
*1465 FILLER_59_279
*1466 FILLER_59_283
*1467 FILLER_59_286
*1468 FILLER_59_350
*1469 FILLER_59_354
*1470 FILLER_59_357
*1471 FILLER_59_421
*1472 FILLER_59_425
*1473 FILLER_59_428
*1474 FILLER_59_492
*1475 FILLER_59_496
*1476 FILLER_59_499
*1477 FILLER_59_507
*1478 FILLER_59_66
*1479 FILLER_59_70
*1480 FILLER_59_73
*1481 FILLER_5_137
*1482 FILLER_5_141
*1483 FILLER_5_144
*1484 FILLER_5_2
*1485 FILLER_5_208
*1486 FILLER_5_212
*1487 FILLER_5_215
*1488 FILLER_5_279
*1489 FILLER_5_283
*1490 FILLER_5_286
*1491 FILLER_5_350
*1492 FILLER_5_354
*1493 FILLER_5_357
*1494 FILLER_5_421
*1495 FILLER_5_425
*1496 FILLER_5_428
*1497 FILLER_5_492
*1498 FILLER_5_496
*1499 FILLER_5_499
*1500 FILLER_5_507
*1501 FILLER_5_66
*1502 FILLER_5_70
*1503 FILLER_5_73
*1504 FILLER_60_101
*1505 FILLER_60_105
*1506 FILLER_60_108
*1507 FILLER_60_172
*1508 FILLER_60_176
*1509 FILLER_60_179
*1510 FILLER_60_2
*1511 FILLER_60_243
*1512 FILLER_60_247
*1513 FILLER_60_250
*1514 FILLER_60_314
*1515 FILLER_60_318
*1516 FILLER_60_321
*1517 FILLER_60_34
*1518 FILLER_60_37
*1519 FILLER_60_385
*1520 FILLER_60_389
*1521 FILLER_60_392
*1522 FILLER_60_456
*1523 FILLER_60_460
*1524 FILLER_60_463
*1525 FILLER_60_495
*1526 FILLER_60_503
*1527 FILLER_60_507
*1528 FILLER_61_137
*1529 FILLER_61_141
*1530 FILLER_61_144
*1531 FILLER_61_2
*1532 FILLER_61_208
*1533 FILLER_61_212
*1534 FILLER_61_215
*1535 FILLER_61_279
*1536 FILLER_61_283
*1537 FILLER_61_286
*1538 FILLER_61_350
*1539 FILLER_61_354
*1540 FILLER_61_357
*1541 FILLER_61_421
*1542 FILLER_61_425
*1543 FILLER_61_428
*1544 FILLER_61_492
*1545 FILLER_61_496
*1546 FILLER_61_499
*1547 FILLER_61_507
*1548 FILLER_61_66
*1549 FILLER_61_70
*1550 FILLER_61_73
*1551 FILLER_62_101
*1552 FILLER_62_105
*1553 FILLER_62_108
*1554 FILLER_62_172
*1555 FILLER_62_176
*1556 FILLER_62_179
*1557 FILLER_62_2
*1558 FILLER_62_243
*1559 FILLER_62_247
*1560 FILLER_62_250
*1561 FILLER_62_314
*1562 FILLER_62_318
*1563 FILLER_62_321
*1564 FILLER_62_34
*1565 FILLER_62_37
*1566 FILLER_62_385
*1567 FILLER_62_389
*1568 FILLER_62_392
*1569 FILLER_62_456
*1570 FILLER_62_460
*1571 FILLER_62_463
*1572 FILLER_62_495
*1573 FILLER_62_503
*1574 FILLER_62_507
*1575 FILLER_63_137
*1576 FILLER_63_141
*1577 FILLER_63_144
*1578 FILLER_63_2
*1579 FILLER_63_208
*1580 FILLER_63_212
*1581 FILLER_63_215
*1582 FILLER_63_279